13
Coordinates from ORCA-job Uracil_1
  C   1.37279273350968      0.52985109762250     -0.01503608579525
  C   1.30272393203113     -0.79420952492505      0.09580024461750
  N   -0.00864010269818     -1.46302036610991      0.11882721195024
  C   -1.33055543638529     -0.61065918653968      0.00814445447131
  N   -1.08070496599549      0.70965696501240     -0.09739865363133
  C   0.17259331863641      1.39887577040594     -0.12218275368314
  O   -2.34424187828590     -1.21975088514150      0.03104872744214
  O   0.20184123356280      2.58969525635049     -0.22326470440899
  H   2.15684359349914     -1.47106167321201      0.17615181232888
  H   -0.12419755838241     -2.01991673459153      0.98459819311511
  H   -1.90712882721561      1.31064360796603     -0.17352977165418
  H   2.33860751605169      1.04018272759891     -0.03285144653880
  H   -0.08059355832796     -2.16281705443658     -0.64174722821352
