11
Coordinates from ORCA-job Uracil_m1
  C   1.35656648898767      0.57247174828618     -0.01957364533012
  C   1.17921711975122     -0.79668464351407      0.08857525871759
  N   0.00820999753307     -1.45449420140541      0.11083802652577
  C   -1.13137574496906     -0.71476416936918      0.01853165275787
  N   -0.99523833087926      0.67764249362704     -0.09261693784113
  C   0.19415760498914      1.40965956200801     -0.12068886947202
  O   -2.27300102017353     -1.20086243623146      0.02805879434706
  O   0.16175816311780      2.64598544068353     -0.22481398914040
  H   2.07555950035445     -1.43034073973251      0.16551452669965
  H   -1.85860809415514      1.21288767338816     -0.16192018095459
  H   2.34594431544364      1.03237927225971     -0.03025463630968
