13
Coordinates from ORCA-job Uracil_1
  C   1.41630809495126      0.58940393251728     -0.07598104057176
  C   1.18213305741531     -0.72256146865749      0.18916782736751
  N   -0.06543437781730     -1.27943813607799      0.32741827294967
  C   -1.24540377544692     -0.61450586258124      0.22055034707406
  N   -1.06436505270518      0.85497344774302     -0.05011871822661
  C   0.34478916963653      1.52243639224180     -0.23490581875631
  O   -2.34794077826865     -1.06261863656681      0.32037707969304
  O   0.33025585181170      2.69160772920224     -0.47449834469917
  H   2.00352783302859     -1.43117462878611      0.31007551762234
  H   -0.13851101967788     -2.27777332792023      0.52563881854647
  H   -1.62304636550132      1.08539642692273     -0.89012040939391
  H   2.43435220188225      0.96345383907889     -0.17910956870854
  H   -1.54352483930839      1.36700029288391      0.71130603710321
