12
Coordinates from ORCA-job Uracil_0
  C   1.32670596225123      0.51575357251030     -0.07262587088455
  C   1.11428350349362     -0.81658369680662      0.03259428470286
  N   -0.15104130444045     -1.34712000306156      0.10352974897866
  C   -1.31562810518278     -0.57768184181592      0.07675189716424
  N   -1.06093569085029      0.77906460397605     -0.03226711934628
  C   0.18770608008261      1.43573404605178     -0.11292927590721
  O   -2.42322607937507     -1.06329083278670      0.14234852589562
  O   0.24459816174825      2.64446425231131     -0.20466507070511
  H   1.93164607755751     -1.54086741021124      0.06690725609053
  H   -0.29921624771650     -2.34715331110794      0.18639769662854
  H   -1.88297317042940      1.37834674803693     -0.05642876545002
  H   2.32808081286128      0.93933387290361     -0.12964330716727
